Circuit: * C:\Users\dell\Desktop\EC LAB\Draft1.asc

WARNING: Less than two connections to node NC_01.  This node is used by VCC.
Direct Newton iteration for .op point succeeded.

Date: Thu Mar 03 15:41:19 2022
Total elapsed time: 0.050 seconds.

tnom = 27
temp = 27
method = trap
totiter = 30
traniter = 0
tranpoints = 0
accept = 0
rejected = 0
matrix size = 14
fillins = 0
solver = Normal
Matrix Compiler1:      41 opcodes
Matrix Compiler2: 1012 bytes object code size
