Circuit: * C:\Users\dell\Desktop\EC LAB\Draft3.asc

Direct Newton iteration for .op point succeeded.

Date: Tue Jan 25 12:02:21 2022
Total elapsed time: 0.062 seconds.

tnom = 27
temp = 27
method = modified trap
totiter = 3429
traniter = 3426
tranpoints = 1714
accept = 1689
rejected = 25
matrix size = 3
fillins = 0
solver = Normal
Matrix Compiler1:       5 opcodes  0.0/[0.0]/0.0
Matrix Compiler2: 163 bytes object code size  0.0/0.0/[0.0]

