Circuit: * C:\Users\dell\Desktop\EC LAB\Draft2.asc

.OP point found by inspection.

Date: Tue Feb 15 09:51:46 2022
Total elapsed time: 0.064 seconds.

tnom = 27
temp = 27
method = trap
totiter = 73
traniter = 0
tranpoints = 0
accept = 0
rejected = 0
matrix size = 4
fillins = 0
solver = Normal
Matrix Compiler1: 100 bytes object code size
Matrix Compiler2: 248 bytes object code size
