Circuit: * C:\Users\dell\Desktop\EC LAB\Draft5.asc

.OP point found by inspection.

Date: Tue Feb 15 13:10:17 2022
Total elapsed time: 0.071 seconds.

tnom = 27
temp = 27
method = modified trap
totiter = 3207
traniter = 3207
tranpoints = 1333
accept = 1228
rejected = 105
matrix size = 9
fillins = 8
solver = Normal
Matrix Compiler1: 884 bytes object code size  0.2/0.1/[0.1]
Matrix Compiler2: off  [0.1]/0.1/0.1

