Circuit: * C:\Users\dell\Desktop\EC LAB\EC LAB1.asc

.OP point found by inspection.

Date: Tue Jan 25 10:13:41 2022
Total elapsed time: 0.070 seconds.

tnom = 27
temp = 27
method = modified trap
totiter = 3866
traniter = 3866
tranpoints = 1934
accept = 1819
rejected = 115
matrix size = 3
fillins = 0
solver = Normal
Matrix Compiler1:       3 opcodes  0.0/[0.0]/0.0
Matrix Compiler2: 175 bytes object code size  0.0/0.0/[0.0]

