Circuit: * C:\Users\dell\Desktop\EC LAB\fullwave_rectifier eclab4.asc

.OP point found by inspection.

Date: Tue Feb 15 21:39:01 2022
Total elapsed time: 0.184 seconds.

tnom = 27
temp = 27
method = modified trap
totiter = 3207
traniter = 3207
tranpoints = 1333
accept = 1228
rejected = 105
matrix size = 9
fillins = 8
solver = Normal
Matrix Compiler1: 884 bytes object code size  0.3/0.1/[0.1]
Matrix Compiler2: 831 bytes object code size  0.1/0.1/[0.1]

