Circuit: * C:\Users\dell\Desktop\EC LAB\halfwave_rectifier eclab4.asc

.OP point found by inspection.

Date: Tue Feb 15 21:42:52 2022
Total elapsed time: 0.096 seconds.

tnom = 27
temp = 27
method = modified trap
totiter = 2463
traniter = 2463
tranpoints = 1146
accept = 1101
rejected = 45
matrix size = 6
fillins = 0
solver = Normal
Matrix Compiler1: 254 bytes object code size  0.2/0.1/[0.1]
Matrix Compiler2:      34 opcodes  0.1/[0.1]/0.1

