Circuit: * C:\Users\dell\Desktop\EC LAB\load_regulation eclab3(6 in manual).asc

Direct Newton iteration for .op point succeeded.
Semiconductor Device Operating Points:
                        --- Diodes ---
Name:      d1
Model:   edzv10b
Id:     -1.01e-12
Vd:     -9.05e-02
Req:     1.54e+11
CAP:     1.67e-11



Date: Tue Feb 15 19:09:14 2022
Total elapsed time: 0.282 seconds.

tnom = 27
temp = 27
method = trap
totiter = 31
traniter = 0
tranpoints = 0
accept = 0
rejected = 0
matrix size = 4
fillins = 0
solver = Normal
Matrix Compiler1: 100 bytes object code size
Matrix Compiler2: 248 bytes object code size
